/*--------------------------------*- C++ -*----------------------------------*\
| =========                 |                                                 |
| \\      /  F ield         | OpenFOAM: The Open Source CFD Toolbox           |
|  \\    /   O peration     | Version:  2.1.1                                 |
|   \\  /    A nd           | Web:      www.OpenFOAM.org                      |
|    \\/     M anipulation  |                                                 |
\*---------------------------------------------------------------------------*/
FoamFile
{
    version     2.0;
    format      ascii;
    class       volVectorField;
    object      U;
}
// * * * * * * * * * * * * * * * * * * * * * * * * * * * * * * * * * * * * * //

dimensions      [0 1 -1 0 0 0 0];

internalField   uniform (0 0 0);

boundaryField
{
    WALL
    {
        type            fixedValue;
        value           uniform (0 0 0);
    }


	INLET
	{
		type     arterySteadyScalingLawInlet;
	}

    OUTLET_1
    {
        type           arteryScalingLawOutlet;
        inletPatchName INLET; //NOTE: only necessary ff we change the inlet patch name
        oppositeOutletPatchName OUTLET_2; //NOTE: only necessary ff we change the outlet patch name
    }

    OUTLET_2
    {
        type            zeroGradient;
    }
}

// ************************************************************************* //