FoamFile
{
    version     2.0;
    format      ascii;
    class       polyBoundaryMesh;
    location    "constant/polyMesh";
    object      boundary;
}

4         
(
    INLET
    {
        type patch;
        nFaces 750;
        startFace 871889;
    }
    OUTLET-1
    {
        type patch;
        nFaces 220;
        startFace 872639;
    }
    OUTLET-2
    {
        type patch;
        nFaces 282;
        startFace 872859;
    }
    WALL
    {
        type wall;
        nFaces 33676;
        startFace 873141;
    }
)
